35

C         -0.00000       -0.00000       -0.00000
C          0.94508       -0.94508        0.94508
C          0.94508        0.94508       -0.94508
C         -0.94508        0.94508        0.94508
C         -0.94508       -0.94508       -0.94508
C          1.82741        0.08268        1.82741
C          1.82741        1.82741        0.08268
C          1.82741       -0.08268       -1.82741
C          1.82741       -1.82741       -0.08268
C          0.08268        1.82741        1.82741
C         -1.82741       -0.08268        1.82741
C         -0.08268       -1.82741        1.82741
C         -1.82741        1.82741       -0.08268
C         -0.08268        1.82741       -1.82741
C         -1.82741        0.08268       -1.82741
C         -1.82741       -1.82741        0.08268
C          0.08268       -1.82741       -1.82741
C          0.87796        2.69542        0.87796
C          0.87796        0.87796        2.69542
C          2.69542        0.87796        0.87796
C          2.69542       -0.87796       -0.87796
C          0.87796       -0.87796       -2.69542
C          0.87796       -2.69542       -0.87796
C         -0.87796       -0.87796        2.69542
C         -2.69542       -0.87796        0.87796
C         -0.87796       -2.69542        0.87796
C         -0.87796        2.69542       -0.87796
C         -2.69542        0.87796       -0.87796
C         -0.87796        0.87796       -2.69542
C          3.38158        0.00000       -0.00000
C          0.00000       -0.00000        3.38158
C         -0.00000        3.38158        0.00000
C          0.00000       -3.38158       -0.00000
C         -0.00000        0.00000       -3.38158
C         -3.38158       -0.00000        0.00000
